9
Coordinates from ORCA-job PAA E -303.404020246042
  C       1.790001     -0.421376      0.003871
  C       0.419121      0.172478     -0.012431
  O      -0.525942     -0.775884     -0.012733
  O       0.139431      1.335298     -0.006044
  O      -1.823884     -0.244783      0.015772
  H       1.775648     -1.453760     -0.315482
  H       2.164648     -0.364868      1.020698
  H       2.431579      0.168076     -0.637231
  H      -1.670481      0.706531      0.011938
9
Coordinates from ORCA-job PAA E -303.475958270197
  C       1.835158     -0.428037      0.003307
  C       0.456348      0.155285     -0.013378
  O      -0.503204     -0.789025     -0.013453
  O       0.173127      1.326625     -0.007003
  O      -1.954955     -0.222797      0.016638
  H       1.828379     -1.466696     -0.317650
  H       2.212378     -0.368983      1.026923
  H       2.481157      0.168821     -0.640649
  H      -1.828267      0.746520      0.013623
9
Coordinates from ORCA-job PAA E -303.505515732190
  C       1.856988     -0.429422      0.002781
  C       0.467067      0.131187     -0.017709
  O      -0.477765     -0.816781     -0.017033
  O       0.182542      1.310907     -0.012900
  O      -2.054916     -0.192703      0.016863
  H       1.869293     -1.478752     -0.320352
  H       2.235435     -0.364595      1.036847
  H       2.503039      0.182960     -0.642512
  H      -1.881562      0.778911      0.022373
9
Coordinates from ORCA-job PAA E -303.517028060066
  C       1.866742     -0.429403      0.002129
  C       0.463329      0.103647     -0.020024
  O      -0.453944     -0.849564     -0.017308
  O       0.175182      1.288222     -0.017863
  O      -2.126626     -0.155937      0.019867
  H       1.905644     -1.479769     -0.322176
  H       2.243056     -0.359479      1.038859
  H       2.504121      0.199732     -0.639817
  H      -1.877384      0.804264      0.024692
9
Coordinates from ORCA-job PAA E -303.521540993964
  C       1.869462     -0.428208      0.001892
  C       0.450747      0.075348     -0.023721
  O      -0.435979     -0.886026     -0.016949
  O       0.154817      1.261991     -0.025126
  O      -2.177736     -0.112658      0.021166
  H       1.939214     -1.476699     -0.323831
  H       2.239754     -0.352114      1.040311
  H       2.493086      0.219162     -0.635769
  H      -1.833245      0.820915      0.030386
9
Coordinates from ORCA-job PAA E -303.523252936090
  C       1.866596     -0.425583      0.002234
  C       0.433818      0.050633     -0.024838
  O      -0.425694     -0.922588     -0.015678
  O       0.126248      1.236774     -0.031623
  O      -2.207759     -0.067910      0.022157
  H       1.964038     -1.470827     -0.326384
  H       2.230336     -0.344072      1.042251
  H       2.473496      0.239582     -0.633085
  H      -1.760959      0.825705      0.033324
9
Coordinates from ORCA-job PAA E -303.524141515519
  C       1.858575     -0.420907      0.002257
  C       0.412725      0.026408     -0.029932
  O      -0.419941     -0.961504     -0.012748
  O       0.087143      1.209362     -0.034303
  O      -2.220272     -0.017019      0.029200
  H       1.982524     -1.461804     -0.330451
  H       2.211712     -0.334716      1.045326
  H       2.448070      0.262572     -0.629862
  H      -1.660416      0.819321      0.028872
9
Coordinates from ORCA-job PAA E -303.524410052577
  C       1.848609     -0.415266      0.003093
  C       0.392873      0.006169     -0.008326
  O      -0.418402     -0.993964     -0.002784
  O       0.049033      1.185567     -0.028279
  O      -2.221483      0.030498      0.019569
  H       1.986484     -1.451592     -0.337016
  H       2.208376     -0.326369      1.043329
  H       2.412659      0.283766     -0.635236
  H      -1.558030      0.802903      0.014009
9
Coordinates from ORCA-job PAA E -303.524526205993
  C       1.848920     -0.415113      0.001408
  C       0.395100      0.007895     -0.026577
  O      -0.420090     -0.989573     -0.001931
  O       0.051388      1.188040     -0.021984
  O      -2.220543      0.023315      0.034132
  H       1.986060     -1.452020     -0.336677
  H       2.198048     -0.326241      1.045334
  H       2.421234      0.281907     -0.631459
  H      -1.559997      0.803501      0.006112
9
Coordinates from ORCA-job PAA E -303.524584708404
  C       1.850786     -0.415768      0.002506
  C       0.400156      0.012126     -0.025896
  O      -0.423156     -0.980243     -0.010208
  O       0.058351      1.193308     -0.031949
  O      -2.219409      0.008984      0.020496
  H       1.980940     -1.455116     -0.330866
  H       2.201752     -0.323625      1.045538
  H       2.427272      0.274806     -0.633600
  H      -1.576572      0.807239      0.032336
9
Coordinates from ORCA-job PAA E -303.524652658535
  C       1.848447     -0.414203      0.002328
  C       0.396721      0.007680     -0.017963
  O      -0.425798     -0.984366     -0.005901
  O       0.049116      1.188213     -0.023410
  O      -2.216270      0.016548      0.021663
  H       1.979210     -1.452687     -0.333698
  H       2.203815     -0.322435      1.043899
  H       2.419345      0.279373     -0.635609
  H      -1.554466      0.803590      0.017049
9
Coordinates from ORCA-job PAA E -303.524687773813
  C       1.846001     -0.412775      0.002240
  C       0.394406      0.004613     -0.019385
  O      -0.429359     -0.986168     -0.007497
  O       0.042893      1.185306     -0.021975
  O      -2.212478      0.020587      0.020993
  H       1.978063     -1.451583     -0.332394
  H       2.200885     -0.318771      1.043806
  H       2.416141      0.280932     -0.636157
  H      -1.536433      0.799570      0.018726
9
Coordinates from ORCA-job PAA E -303.524692678723
  C       1.845825     -0.412823      0.002139
  C       0.395111      0.005308     -0.018193
  O      -0.430621     -0.984204     -0.007618
  O       0.044547      1.186570     -0.019292
  O      -2.211448      0.017732      0.022944
  H       1.977034     -1.451777     -0.332501
  H       2.202289     -0.319230      1.043218
  H       2.416578      0.280268     -0.636336
  H      -1.539196      0.799868      0.013997
9
Coordinates from ORCA-job PAA E -303.524694864614
  C       1.845603     -0.412880      0.002191
  C       0.394964      0.005346     -0.019476
  O      -0.430781     -0.984135     -0.009165
  O       0.044965      1.186738     -0.020612
  O      -2.211294      0.017714      0.022252
  H       1.977620     -1.452053     -0.331437
  H       2.201619     -0.318508      1.043361
  H       2.416904      0.279766     -0.636270
  H      -1.539480      0.799725      0.017513
9
Coordinates from ORCA-job PAA E -303.524695183627
  C       1.845411     -0.412949      0.002189
  C       0.394794      0.005375     -0.019773
  O      -0.430947     -0.984080     -0.010112
  O       0.045299      1.186857     -0.020475
  O      -2.211210      0.017753      0.022195
  H       1.978047     -1.452249     -0.330786
  H       2.201564     -0.318035      1.043268
  H       2.416816      0.279448     -0.636450
  H      -1.539656      0.799592      0.018301
